Version 4
SHEET 1 2580 1252
WIRE -1936 -464 -1936 -512
WIRE -2000 -416 -2160 -416
WIRE -2160 -352 -2160 -416
WIRE -1936 -336 -1936 -368
WIRE -1648 -336 -1936 -336
WIRE -1936 -320 -1936 -336
WIRE -2160 -224 -2160 -272
WIRE -80 -208 -80 -224
WIRE -1936 -144 -1936 -240
WIRE -80 -112 -80 -128
WIRE 1248 0 1200 0
WIRE 1376 0 1328 0
WIRE 1552 0 1504 0
WIRE 1680 0 1632 0
WIRE 1376 80 1376 0
WIRE 1504 80 1504 0
WIRE 1728 80 1728 48
WIRE 864 96 768 96
WIRE 864 128 864 96
WIRE 1264 128 864 128
WIRE -368 144 -624 144
WIRE 1728 160 1728 144
WIRE 1728 160 1616 160
WIRE -1936 176 -1936 128
WIRE 1264 176 864 176
WIRE -2000 224 -2240 224
WIRE 688 240 640 240
WIRE 864 240 864 176
WIRE 864 240 768 240
WIRE 1120 240 1088 240
WIRE 1264 240 1184 240
WIRE 1728 240 1616 240
WIRE 1728 256 1728 240
WIRE -2240 288 -2240 224
WIRE -448 288 -448 240
WIRE -1936 304 -1936 272
WIRE -1648 304 -1936 304
WIRE -624 304 -624 144
WIRE -480 304 -624 304
WIRE 944 304 912 304
WIRE 1264 304 1024 304
WIRE -1936 320 -1936 304
WIRE -368 320 -368 144
WIRE -368 320 -416 320
WIRE -320 320 -368 320
WIRE -304 320 -320 320
WIRE -480 336 -736 336
WIRE 1728 336 1728 320
WIRE -320 368 -320 320
WIRE 1264 368 1200 368
WIRE -448 400 -448 352
WIRE -2240 416 -2240 368
WIRE 1200 448 1200 368
WIRE 1440 448 1440 416
WIRE -320 480 -320 432
WIRE -1936 496 -1936 400
WIRE 1200 560 1200 528
WIRE 928 640 928 624
WIRE 1440 640 1440 624
WIRE -432 720 -432 672
WIRE 928 736 928 720
WIRE 1440 736 1440 720
WIRE -432 832 -432 800
FLAG 1440 448 0
FLAG 1728 240 OUT
FLAG 1728 336 0
FLAG 640 240 0
FLAG 912 304 0
FLAG 928 736 0
FLAG 1440 736 0
FLAG 1440 624 sclk2
FLAG 928 624 sclk1
FLAG 1200 560 0
FLAG 1200 0 0
FLAG 1680 0 0
FLAG 1728 48 0
FLAG 1088 240 0
FLAG -1936 128 Vcc
IOPIN -1936 128 In
FLAG -1936 496 0
FLAG -1648 304 Vsens
FLAG -2048 736 0
FLAG -2048 656 Vcc
IOPIN -2048 656 Out
FLAG -400 -208 Vtest
FLAG -400 -128 0
FLAG 768 96 VopAmp
FLAG -448 240 Vcc
IOPIN -448 240 In
FLAG -304 320 VopAmp
FLAG -80 -112 0
FLAG -80 -224 Vtest2
FLAG -448 400 0
FLAG -736 336 Vsens
FLAG -432 832 0
FLAG -432 672 -Vcc
IOPIN -432 672 Out
FLAG -320 480 0
FLAG -1936 -512 Vcc
IOPIN -1936 -512 In
FLAG -1936 -144 0
FLAG -1648 -336 Vsens_base
FLAG -2160 -224 0
FLAG -2240 416 0
SYMBOL voltage 1344 0 M270
WINDOW 0 32 56 VTop 2
WINDOW 3 -32 56 VBottom 2
WINDOW 123 -68 56 VBottom 2
WINDOW 39 -50 56 VBottom 2
SYMATTR InstName V2
SYMATTR Value PWL(0 0 0.1u 5)
SYMBOL cap 1712 256 R0
SYMATTR InstName C1
SYMATTR Value 10p
SYMBOL voltage 784 240 M270
WINDOW 0 32 56 VTop 2
WINDOW 3 -32 56 VBottom 2
SYMATTR InstName Va-
SYMATTR Value 0
SYMBOL voltage 1040 304 R90
WINDOW 0 -32 56 VBottom 2
WINDOW 3 32 56 VTop 2
WINDOW 123 0 0 Left 2
WINDOW 39 0 0 Left 2
SYMATTR InstName V1
SYMATTR Value PULSE(0 1.8 227n .1n .1n 40n 199.5n)
SYMBOL voltage 928 624 R0
WINDOW 123 0 0 Left 2
WINDOW 39 0 0 Left 2
SYMATTR InstName Vsclk1
SYMATTR Value PULSE(0 1.8 9.5n .1n .1n 4.65n 9.5n)
SYMBOL bv 1200 432 R0
SYMATTR InstName Bsclk
SYMATTR Value V=max(V(sclk1),V(sclk2))
SYMBOL voltage 1440 624 R0
WINDOW 123 0 0 Left 2
WINDOW 39 0 0 Left 2
SYMATTR InstName Vsclk2
SYMATTR Value PULSE(0 1.81 11.875n .1n .1n 66.5n 199.5n)
SYMBOL voltage 1536 0 M90
WINDOW 0 -32 56 VBottom 2
WINDOW 3 32 56 VTop 2
WINDOW 123 68 56 VTop 2
WINDOW 39 50 56 VTop 2
SYMATTR InstName V3
SYMATTR Value 1.8
SYMBOL cap 1712 144 M180
WINDOW 0 38 64 Left 2
WINDOW 3 41 41 Left 2
WINDOW 123 41 -7 Left 2
WINDOW 39 41 16 Left 2
SYMATTR InstName C2
SYMATTR Value 10µ
SYMATTR Value2 ic=4.096
SYMATTR SpiceLine Rser=10m
SYMBOL cap 1184 224 R90
WINDOW 0 0 32 VBottom 2
WINDOW 3 32 32 VTop 2
WINDOW 123 50 32 VTop 2
SYMATTR InstName C4
SYMATTR Value 10µ
SYMATTR Value2 ic=1.25
SYMBOL LTC2311-12 1440 240 R0
SYMATTR InstName U1
SYMBOL npn -2000 176 R0
SYMATTR InstName Q1
SYMBOL res -1952 304 R0
SYMATTR InstName R1
SYMATTR Value 330K
SYMBOL voltage -2048 640 R0
WINDOW 123 0 0 Left 0
WINDOW 39 0 0 Left 0
SYMATTR InstName V4
SYMATTR Value 5
SYMBOL voltage -400 -224 R0
WINDOW 123 0 0 Left 0
WINDOW 39 0 0 Left 0
SYMATTR InstName Vtest
SYMATTR Value 60m
SYMBOL voltage -80 -224 R0
WINDOW 123 0 0 Left 0
WINDOW 39 0 0 Left 0
SYMATTR InstName Vtest2
SYMATTR Value SINE(1 1 50k)
SYMBOL voltage -432 704 R0
WINDOW 123 0 0 Left 0
WINDOW 39 0 0 Left 0
SYMATTR InstName V5
SYMATTR Value -5
SYMBOL cap -336 368 R0
SYMATTR InstName C3
SYMATTR Value 1n
SYMBOL OpAmps\\AD8032 -448 256 R0
SYMATTR InstName U2
SYMBOL npn -2000 -464 R0
SYMATTR InstName Q2
SYMBOL res -1952 -336 R0
SYMATTR InstName R2
SYMATTR Value 330K
SYMBOL current -2240 368 R180
WINDOW 0 24 80 Left 2
WINDOW 3 24 0 Left 2
WINDOW 123 0 0 Left 0
WINDOW 39 0 0 Left 0
SYMATTR InstName I1
SYMATTR Value 2n
SYMBOL current -2160 -272 R180
WINDOW 0 24 80 Left 2
WINDOW 3 24 0 Left 2
WINDOW 123 0 0 Left 0
WINDOW 39 0 0 Left 0
SYMATTR InstName I2
SYMATTR Value 2n
SYMBOL diode 16 32 R0
SYMATTR InstName D1
TEXT -304 -40 Left 2 !.tran 20u
TEXT 968 416 Center 2 ;SCLK and _CNV\nare shown in timing\ndiagram on page 11\nof LTC2311-12 data sheet
TEXT -1776 -24 Left 2 ;Maximum admissible current draw 50 mA\nShoot for Max current of 5 mA?
TEXT 1320 -152 Left 2 ;ADC Circuit
TEXT -2104 -72 Left 2 ;Sensor Circuit
TEXT -320 -520 Center 7 ;TSS\nElectronics Simulation
TEXT -488 0 Left 2 ;Amplifier
