Version 4
SHEET 1 880 680
WIRE 448 -144 288 -144
WIRE 352 -64 352 -96
WIRE 288 -48 288 -144
WIRE 320 -48 288 -48
WIRE 448 -32 448 -144
WIRE 448 -32 384 -32
WIRE 320 -16 240 -16
WIRE 352 32 352 0
WIRE 16 240 16 208
WIRE 368 240 368 192
WIRE 544 240 544 192
WIRE 16 336 16 320
WIRE 16 336 -48 336
WIRE 16 352 16 336
WIRE 368 352 368 320
WIRE 544 352 544 320
WIRE -48 368 -48 336
WIRE 16 480 16 432
FLAG 16 208 Vcc
FLAG 16 480 -Vcc
FLAG -48 368 0
FLAG 368 352 0
FLAG 544 352 0
FLAG 368 192 Vtest
FLAG 544 192 Vtest2
FLAG 352 -96 Vcc
FLAG 352 32 0
FLAG 448 -32 VopAmp
FLAG 240 -16 Vtest2
SYMBOL voltage 16 224 R0
WINDOW 123 0 0 Left 0
WINDOW 39 0 0 Left 0
SYMATTR InstName Vcc
SYMATTR Value 5
SYMBOL voltage 16 336 R0
WINDOW 123 0 0 Left 0
WINDOW 39 0 0 Left 0
SYMATTR InstName -Vcc
SYMATTR Value 5v
SYMBOL voltage 368 224 R0
WINDOW 123 0 0 Left 0
WINDOW 39 0 0 Left 0
SYMATTR InstName Vtest
SYMATTR Value 100m
SYMBOL voltage 544 224 R0
WINDOW 123 0 0 Left 0
WINDOW 39 0 0 Left 0
SYMATTR InstName Vtest2
SYMATTR Value SINE(2.5 5 1k)
SYMBOL OpAmps\\AD8031 352 -96 R0
SYMATTR InstName U1
TEXT 676 98 Left 2 !.tran 1m
