Version 4
SHEET 1 1496 680
WIRE 192 -224 192 -288
WIRE 128 -176 -16 -176
WIRE -16 -144 -16 -176
WIRE 192 -80 192 -128
WIRE 192 48 192 0
WIRE 16 240 16 208
WIRE 368 240 368 192
WIRE 544 240 544 192
WIRE 16 336 16 320
WIRE 16 336 -48 336
WIRE 16 352 16 336
WIRE 368 352 368 320
WIRE 544 352 544 320
WIRE -48 368 -48 336
WIRE 16 480 16 432
FLAG 16 208 Vcc
FLAG 16 480 -Vcc
FLAG -48 368 0
FLAG 368 352 0
FLAG 544 352 0
FLAG 368 192 Vtest
FLAG 544 192 Vtest2
FLAG -16 -64 0
FLAG 192 48 0
FLAG 192 -288 Vcc
DATAFLAG 192 -96 ""
SYMBOL voltage 16 224 R0
WINDOW 123 0 0 Left 0
WINDOW 39 0 0 Left 0
SYMATTR InstName Vcc
SYMATTR Value 5
SYMBOL voltage 16 336 R0
WINDOW 123 0 0 Left 0
WINDOW 39 0 0 Left 0
SYMATTR InstName -Vcc
SYMATTR Value 5v
SYMBOL voltage 368 224 R0
WINDOW 123 0 0 Left 0
WINDOW 39 0 0 Left 0
SYMATTR InstName Vtest
SYMATTR Value 100m
SYMBOL voltage 544 224 R0
WINDOW 123 0 0 Left 0
WINDOW 39 0 0 Left 0
SYMATTR InstName Vtest2
SYMATTR Value SINE(2.5 5 1k)
SYMBOL npn 128 -224 R0
SYMATTR InstName Q1
SYMBOL current -16 -64 R180
WINDOW 0 24 80 Left 2
WINDOW 3 24 0 Left 2
WINDOW 123 0 0 Left 0
WINDOW 39 0 0 Left 0
SYMATTR InstName Itest1
SYMATTR Value 20n
SYMBOL res 176 -96 R0
SYMATTR InstName R1
SYMATTR Value 330K
TEXT 680 96 Left 2 !.op
